/*--------------------------------*- C++ -*----------------------------------*\
  =========                 |
  \\      /  F ield         | moldingFoam contract case
   \\      /  Website      | https://openfoam.org
    \\  /    A nd          | Copyright (C) 2026 Yuki Lu
     \\/     M anipulation |
-------------------------------------------------------------------------------
Description
    Gravity.
\*---------------------------------------------------------------------------*/
FoamFile
{
    format      ascii;
    class       uniformDimensionedVectorField;
    location    "constant";
    object      g;
}
// * * * * * * * * * * * * * * * * * * * * * * * * * * * * * * * * * * * * * //

dimensions      [0 1 -2 0 0 0 0];

value           (0 0 0);

// ************************************************************************* //
